/*--------------------------------*- C++ -*----------------------------------*\
| =========                 |                                                 |
| \\      /  F ield         | OpenFOAM: The Open Source CFD Toolbox           |
|  \\    /   O peration     | Version:  dev                                   |
|   \\  /    A nd           | Web:      www.OpenFOAM.org                      |
|    \\/     M anipulation  |                                                 |
\*---------------------------------------------------------------------------*/
FoamFile
{
    version     2.0;
    format      ascii;
    class       dictionary;
    object      blockMeshDict;
}
// * * * * * * * * * * * * * * * * * * * * * * * * * * * * * * * * * * * * * //

convertToMeters 1e-3;

vertices
(
    (0 0 0)
    (287 0 0)
    (287 150 0)
    (0 150 0)
    (0 0 0.2)
    (287 0 0.2)
    (287 150 0.2)
    (0 150 0.2)
);

blocks
(
/*    hex (0 1 2 3 4 5 6 7) (574 300 1) simpleGrading (1 1 1)*/
    hex (0 1 2 3 4 5 6 7) (287 150 1) simpleGrading (1 1 1)
/*    hex (0 1 2 3 4 5 6 7) (95 50 1) simpleGrading (1 1 1)*/
);

edges
(
);

boundary
(
    ymax
    {
        type patch;
        faces
        (
            (3 7 6 2)
        );
    }
    left
    {
        type patch;
        faces
        (
            (0 4 7 3)
        );
    }
    right
    {
        type patch;
        faces
        (
            (2 6 5 1)
        );
    }
    ymin
    {
        type patch;
        faces
        (
            (1 5 4 0)
        );
    }
    frontAndBack
    {
        type empty;
        faces
        (
            (0 3 2 1)
            (4 5 6 7)
        );
    }
);

mergePatchPairs
(
);

// ************************************************************************* //
